Candidate_1
     RDKit          3D

 52 55  0  0  0  0  0  0  0  0999 V2000
    3.2970   -0.4316    1.1555 C   0  0  0  0  0  0  0  0  0  0  0  0
    4.5272   -0.5244    0.2257 C   0  0  0  0  0  0  0  0  0  0  0  0
    5.6955    0.2236    0.7369 N   0  0  0  0  0  0  0  0  0  0  0  0
    5.2856    1.4249    1.4920 C   0  0  0  0  0  0  0  0  0  0  0  0
    3.8728    1.9461    1.1406 C   0  0  0  0  0  0  0  0  0  0  0  0
    2.8239    0.9442    1.3891 N   0  0  0  0  0  0  0  0  0  0  0  0
    1.5309    1.2642    0.7701 C   0  0  0  0  0  0  0  0  0  0  0  0
    1.4233    1.2756   -0.7704 C   0  0  0  0  0  0  0  0  0  0  0  0
    1.5705   -0.0211   -1.3518 O   0  0  0  0  0  0  0  0  0  0  0  0
    0.4622   -0.7921   -1.5437 C   0  0  0  0  0  0  0  0  0  0  0  0
   -0.8070   -0.5687   -1.0180 C   0  0  0  0  0  0  0  0  0  0  0  0
   -1.8806   -1.4634   -1.2872 C   0  0  0  0  0  0  0  0  0  0  0  0
   -1.6632   -2.5770   -2.1095 C   0  0  0  0  0  0  0  0  0  0  0  0
   -0.3890   -2.7890   -2.6144 C   0  0  0  0  0  0  0  0  0  0  0  0
    0.6673   -1.9175   -2.3343 C   0  0  0  0  0  0  0  0  0  0  0  0
   -2.6275   -3.4440   -2.4268 N   0  0  0  0  0  0  0  0  0  0  0  0
   -3.8414   -3.2008   -1.9236 C   0  0  0  0  0  0  0  0  0  0  0  0
   -4.1746   -2.1847   -1.1239 N   0  0  0  0  0  0  0  0  0  0  0  0
   -3.1946   -1.3242   -0.7946 C   0  0  0  0  0  0  0  0  0  0  0  0
   -3.4785   -0.2554    0.1015 N   0  0  0  0  0  0  0  0  0  0  0  0
   -4.7417    0.2385    0.4992 C   0  0  0  0  0  0  0  0  0  0  0  0
   -5.8658    0.2001   -0.3382 C   0  0  0  0  0  0  0  0  0  0  0  0
   -7.0809    0.7645    0.0608 C   0  0  0  0  0  0  0  0  0  0  0  0
   -7.1704    1.3956    1.2931 C   0  0  0  0  0  0  0  0  0  0  0  0
   -6.0653    1.4823    2.1282 C   0  0  0  0  0  0  0  0  0  0  0  0
   -4.8522    0.9166    1.7256 C   0  0  0  0  0  0  0  0  0  0  0  0
   -8.3322    1.9409    1.6755 F   0  0  0  0  0  0  0  0  0  0  0  0
    6.6156    0.5451   -0.3493 C   0  0  0  0  0  0  0  0  0  0  0  0
    2.4981   -1.0853    0.7886 H   0  0  0  0  0  0  0  0  0  0  0  0
    3.5757   -0.8486    2.1325 H   0  0  0  0  0  0  0  0  0  0  0  0
    4.2372   -0.1595   -0.7684 H   0  0  0  0  0  0  0  0  0  0  0  0
    4.8096   -1.5774    0.1107 H   0  0  0  0  0  0  0  0  0  0  0  0
    6.0144    2.2373    1.3779 H   0  0  0  0  0  0  0  0  0  0  0  0
    5.3031    1.1645    2.5586 H   0  0  0  0  0  0  0  0  0  0  0  0
    3.6621    2.8349    1.7466 H   0  0  0  0  0  0  0  0  0  0  0  0
    3.8872    2.2674    0.0933 H   0  0  0  0  0  0  0  0  0  0  0  0
    0.7907    0.5662    1.1788 H   0  0  0  0  0  0  0  0  0  0  0  0
    1.2267    2.2548    1.1318 H   0  0  0  0  0  0  0  0  0  0  0  0
    0.4879    1.7518   -1.0893 H   0  0  0  0  0  0  0  0  0  0  0  0
    2.2125    1.9011   -1.1991 H   0  0  0  0  0  0  0  0  0  0  0  0
   -1.0021    0.2993   -0.3982 H   0  0  0  0  0  0  0  0  0  0  0  0
   -0.2091   -3.6557   -3.2469 H   0  0  0  0  0  0  0  0  0  0  0  0
    1.6522   -2.1181   -2.7498 H   0  0  0  0  0  0  0  0  0  0  0  0
   -4.6304   -3.8971   -2.1863 H   0  0  0  0  0  0  0  0  0  0  0  0
   -2.8459   -0.3281    0.8923 H   0  0  0  0  0  0  0  0  0  0  0  0
   -5.8075   -0.2673   -1.3178 H   0  0  0  0  0  0  0  0  0  0  0  0
   -7.9494    0.7198   -0.5878 H   0  0  0  0  0  0  0  0  0  0  0  0
   -6.1512    1.9928    3.0818 H   0  0  0  0  0  0  0  0  0  0  0  0
   -3.9930    1.0075    2.3852 H   0  0  0  0  0  0  0  0  0  0  0  0
    6.9246   -0.3653   -0.8749 H   0  0  0  0  0  0  0  0  0  0  0  0
    6.1709    1.2319   -1.0784 H   0  0  0  0  0  0  0  0  0  0  0  0
    7.5289    1.0046    0.0446 H   0  0  0  0  0  0  0  0  0  0  0  0
  1  2  1  0
  2  3  1  0
  3  4  1  0
  4  5  1  0
  5  6  1  0
  6  7  1  0
  7  8  1  0
  8  9  1  0
  9 10  1  0
 10 11  2  0
 11 12  1  0
 12 13  2  0
 13 14  1  0
 14 15  2  0
 13 16  1  0
 16 17  2  0
 17 18  1  0
 18 19  2  0
 19 20  1  0
 20 21  1  0
 21 22  2  0
 22 23  1  0
 23 24  2  0
 24 25  1  0
 25 26  2  0
 24 27  1  0
  3 28  1  0
  6  1  1  0
 15 10  1  0
 19 12  1  0
 26 21  1  0
  1 29  1  0
  1 30  1  0
  2 31  1  0
  2 32  1  0
  4 33  1  0
  4 34  1  0
  5 35  1  0
  5 36  1  0
  7 37  1  0
  7 38  1  0
  8 39  1  0
  8 40  1  0
 11 41  1  0
 14 42  1  0
 15 43  1  0
 17 44  1  0
 20 45  1  0
 22 46  1  0
 23 47  1  0
 25 48  1  0
 26 49  1  0
 28 50  1  0
 28 51  1  0
 28 52  1  0
M  END
>  <SMILES>  (1) 
C1CN(CCN1CCOC2=CC3=C(C=C2)N=CN=C3NC4=CC=C(C=C4)F)C

>  <QED>  (1) 
0.708

>  <SA_Score>  (1) 
2.13

>  <CompositeScore>  (1) 
0.495

>  <MW>  (1) 
381.5

$$$$
Candidate_2
     RDKit          3D

 48 51  0  0  0  0  0  0  0  0999 V2000
    5.9757   -1.2484    0.4045 C   0  0  0  0  0  0  0  0  0  0  0  0
    7.2640   -1.2803    0.9489 C   0  0  0  0  0  0  0  0  0  0  0  0
    7.8722   -0.0959    1.3522 C   0  0  0  0  0  0  0  0  0  0  0  0
    7.1982    1.1140    1.2258 C   0  0  0  0  0  0  0  0  0  0  0  0
    5.9096    1.1388    0.6808 C   0  0  0  0  0  0  0  0  0  0  0  0
    5.2897   -0.0347    0.2327 C   0  0  0  0  0  0  0  0  0  0  0  0
    3.9666   -0.0610   -0.2601 N   0  0  0  0  0  0  0  0  0  0  0  0
    3.2460    0.9689   -0.9254 C   0  0  0  0  0  0  0  0  0  0  0  0
    3.9072    2.0449   -1.3892 N   0  0  0  0  0  0  0  0  0  0  0  0
    3.1866    2.9650   -2.0350 C   0  0  0  0  0  0  0  0  0  0  0  0
    1.8703    2.9206   -2.2636 N   0  0  0  0  0  0  0  0  0  0  0  0
    1.2172    1.8578   -1.7884 C   0  0  0  0  0  0  0  0  0  0  0  0
    1.8529    0.8241   -1.0906 C   0  0  0  0  0  0  0  0  0  0  0  0
    1.0764   -0.2600   -0.6036 C   0  0  0  0  0  0  0  0  0  0  0  0
   -0.3007   -0.3288   -0.8200 C   0  0  0  0  0  0  0  0  0  0  0  0
   -0.9158    0.6976   -1.5227 C   0  0  0  0  0  0  0  0  0  0  0  0
   -0.1535    1.7744   -1.9939 C   0  0  0  0  0  0  0  0  0  0  0  0
   -0.9034   -1.4325   -0.2909 O   0  0  0  0  0  0  0  0  0  0  0  0
   -2.3122   -1.6082   -0.4780 C   0  0  0  0  0  0  0  0  0  0  0  0
   -3.1059   -0.8680    0.6124 C   0  0  0  0  0  0  0  0  0  0  0  0
   -4.5581   -1.1187    0.5656 N   0  0  0  0  0  0  0  0  0  0  0  0
   -5.2011   -0.5983    1.7951 C   0  0  0  0  0  0  0  0  0  0  0  0
   -6.7261   -0.7824    1.7574 C   0  0  0  0  0  0  0  0  0  0  0  0
   -7.2956   -0.1287    0.6161 O   0  0  0  0  0  0  0  0  0  0  0  0
   -6.7238   -0.6595   -0.5854 C   0  0  0  0  0  0  0  0  0  0  0  0
   -5.1967   -0.4756   -0.6042 C   0  0  0  0  0  0  0  0  0  0  0  0
    9.4549   -0.1310    2.0245 Cl  0  0  0  0  0  0  0  0  0  0  0  0
    5.5138   -2.1878    0.1111 H   0  0  0  0  0  0  0  0  0  0  0  0
    7.7798   -2.2301    1.0594 H   0  0  0  0  0  0  0  0  0  0  0  0
    7.6592    2.0415    1.5537 H   0  0  0  0  0  0  0  0  0  0  0  0
    5.3932    2.0930    0.6182 H   0  0  0  0  0  0  0  0  0  0  0  0
    3.7507   -0.9478   -0.7037 H   0  0  0  0  0  0  0  0  0  0  0  0
    3.7213    3.8300   -2.4122 H   0  0  0  0  0  0  0  0  0  0  0  0
    1.5473   -1.0574   -0.0325 H   0  0  0  0  0  0  0  0  0  0  0  0
   -1.9819    0.7100   -1.7203 H   0  0  0  0  0  0  0  0  0  0  0  0
   -0.6497    2.5764   -2.5377 H   0  0  0  0  0  0  0  0  0  0  0  0
   -2.6159   -1.3481   -1.4972 H   0  0  0  0  0  0  0  0  0  0  0  0
   -2.4993   -2.6842   -0.3768 H   0  0  0  0  0  0  0  0  0  0  0  0
   -2.7108   -1.2123    1.5780 H   0  0  0  0  0  0  0  0  0  0  0  0
   -2.8926    0.2077    0.5792 H   0  0  0  0  0  0  0  0  0  0  0  0
   -4.9757    0.4704    1.9090 H   0  0  0  0  0  0  0  0  0  0  0  0
   -4.8072   -1.1237    2.6727 H   0  0  0  0  0  0  0  0  0  0  0  0
   -7.1750   -0.3375    2.6512 H   0  0  0  0  0  0  0  0  0  0  0  0
   -6.9990   -1.8445    1.7412 H   0  0  0  0  0  0  0  0  0  0  0  0
   -7.1707   -0.1232   -1.4287 H   0  0  0  0  0  0  0  0  0  0  0  0
   -6.9980   -1.7171   -0.6813 H   0  0  0  0  0  0  0  0  0  0  0  0
   -4.8150   -0.9079   -1.5346 H   0  0  0  0  0  0  0  0  0  0  0  0
   -4.9691    0.5984   -0.6094 H   0  0  0  0  0  0  0  0  0  0  0  0
  1  2  2  0
  2  3  1  0
  3  4  2  0
  4  5  1  0
  5  6  2  0
  6  7  1  0
  7  8  1  0
  8  9  2  0
  9 10  1  0
 10 11  2  0
 11 12  1  0
 12 13  2  0
 13 14  1  0
 14 15  2  0
 15 16  1  0
 16 17  2  0
 15 18  1  0
 18 19  1  0
 19 20  1  0
 20 21  1  0
 21 22  1  0
 22 23  1  0
 23 24  1  0
 24 25  1  0
 25 26  1  0
  3 27  1  0
  6  1  1  0
 13  8  1  0
 17 12  1  0
 26 21  1  0
  1 28  1  0
  2 29  1  0
  4 30  1  0
  5 31  1  0
  7 32  1  0
 10 33  1  0
 14 34  1  0
 16 35  1  0
 17 36  1  0
 19 37  1  0
 19 38  1  0
 20 39  1  0
 20 40  1  0
 22 41  1  0
 22 42  1  0
 23 43  1  0
 23 44  1  0
 25 45  1  0
 25 46  1  0
 26 47  1  0
 26 48  1  0
M  END
>  <SMILES>  (2) 
C1=CC(=CC=C1NC2=NC=NC3=C2C=C(C=C3)OCCN4CCOCC4)Cl

>  <QED>  (2) 
0.698

>  <SA_Score>  (2) 
2.11

>  <CompositeScore>  (2) 
0.487

>  <MW>  (2) 
384.9

$$$$
Candidate_3
     RDKit          3D

 52 55  0  0  0  0  0  0  0  0999 V2000
   -4.6256   -1.0235    0.4070 C   0  0  0  0  0  0  0  0  0  0  0  0
   -5.5349   -0.3120   -0.6208 C   0  0  0  0  0  0  0  0  0  0  0  0
   -6.6364    0.4457    0.0031 N   0  0  0  0  0  0  0  0  0  0  0  0
   -6.2431    1.0133    1.3087 C   0  0  0  0  0  0  0  0  0  0  0  0
   -4.7171    1.1656    1.5021 C   0  0  0  0  0  0  0  0  0  0  0  0
   -4.0085   -0.1190    1.3910 N   0  0  0  0  0  0  0  0  0  0  0  0
   -2.5533    0.0174    1.2770 C   0  0  0  0  0  0  0  0  0  0  0  0
   -1.9999    0.5905   -0.0412 C   0  0  0  0  0  0  0  0  0  0  0  0
   -0.5738    0.7055    0.0112 O   0  0  0  0  0  0  0  0  0  0  0  0
    0.1894   -0.3618   -0.3619 C   0  0  0  0  0  0  0  0  0  0  0  0
    1.5642   -0.1211   -0.3606 C   0  0  0  0  0  0  0  0  0  0  0  0
    2.4964   -1.1277   -0.7257 C   0  0  0  0  0  0  0  0  0  0  0  0
    2.0245   -2.3983   -1.0755 C   0  0  0  0  0  0  0  0  0  0  0  0
    0.6541   -2.6222   -1.0675 C   0  0  0  0  0  0  0  0  0  0  0  0
   -0.2643   -1.6235   -0.7185 C   0  0  0  0  0  0  0  0  0  0  0  0
    2.8337   -3.4044   -1.4146 N   0  0  0  0  0  0  0  0  0  0  0  0
    4.1455   -3.1481   -1.3985 C   0  0  0  0  0  0  0  0  0  0  0  0
    4.7186   -1.9826   -1.0885 N   0  0  0  0  0  0  0  0  0  0  0  0
    3.8971   -0.9683   -0.7620 C   0  0  0  0  0  0  0  0  0  0  0  0
    4.4487    0.3066   -0.4571 N   0  0  0  0  0  0  0  0  0  0  0  0
    5.7948    0.6442   -0.1896 C   0  0  0  0  0  0  0  0  0  0  0  0
    6.6987   -0.2516    0.3964 C   0  0  0  0  0  0  0  0  0  0  0  0
    8.0057    0.1366    0.7094 C   0  0  0  0  0  0  0  0  0  0  0  0
    8.4225    1.4416    0.4627 C   0  0  0  0  0  0  0  0  0  0  0  0
    7.5246    2.3524   -0.0844 C   0  0  0  0  0  0  0  0  0  0  0  0
    6.2195    1.9654   -0.3972 C   0  0  0  0  0  0  0  0  0  0  0  0
    8.0237    3.9752   -0.3708 Cl  0  0  0  0  0  0  0  0  0  0  0  0
   -7.1479    1.4648   -0.9075 C   0  0  0  0  0  0  0  0  0  0  0  0
   -3.8738   -1.6215   -0.1218 H   0  0  0  0  0  0  0  0  0  0  0  0
   -5.2350   -1.7473    0.9637 H   0  0  0  0  0  0  0  0  0  0  0  0
   -4.9053    0.3493   -1.2315 H   0  0  0  0  0  0  0  0  0  0  0  0
   -5.9626   -1.0611   -1.2974 H   0  0  0  0  0  0  0  0  0  0  0  0
   -6.6252    0.3401    2.0873 H   0  0  0  0  0  0  0  0  0  0  0  0
   -6.7323    1.9786    1.4900 H   0  0  0  0  0  0  0  0  0  0  0  0
   -4.5268    1.5912    2.4942 H   0  0  0  0  0  0  0  0  0  0  0  0
   -4.3536    1.8905    0.7645 H   0  0  0  0  0  0  0  0  0  0  0  0
   -2.1022   -0.9654    1.4618 H   0  0  0  0  0  0  0  0  0  0  0  0
   -2.1836    0.6331    2.1081 H   0  0  0  0  0  0  0  0  0  0  0  0
   -2.3707    1.6120   -0.1768 H   0  0  0  0  0  0  0  0  0  0  0  0
   -2.3289    0.0359   -0.9266 H   0  0  0  0  0  0  0  0  0  0  0  0
    1.9134    0.8631   -0.0551 H   0  0  0  0  0  0  0  0  0  0  0  0
    0.2846   -3.6099   -1.3374 H   0  0  0  0  0  0  0  0  0  0  0  0
   -1.3173   -1.8820   -0.7268 H   0  0  0  0  0  0  0  0  0  0  0  0
    4.8082   -3.9642   -1.6653 H   0  0  0  0  0  0  0  0  0  0  0  0
    3.9956    1.0043   -1.0386 H   0  0  0  0  0  0  0  0  0  0  0  0
    6.3934   -1.2696    0.6254 H   0  0  0  0  0  0  0  0  0  0  0  0
    8.6906   -0.5818    1.1523 H   0  0  0  0  0  0  0  0  0  0  0  0
    9.4372    1.7421    0.7078 H   0  0  0  0  0  0  0  0  0  0  0  0
    5.5350    2.7017   -0.8088 H   0  0  0  0  0  0  0  0  0  0  0  0
   -8.0348    1.9487   -0.4836 H   0  0  0  0  0  0  0  0  0  0  0  0
   -7.4605    1.0129   -1.8555 H   0  0  0  0  0  0  0  0  0  0  0  0
   -6.4020    2.2385   -1.1222 H   0  0  0  0  0  0  0  0  0  0  0  0
  1  2  1  0
  2  3  1  0
  3  4  1  0
  4  5  1  0
  5  6  1  0
  6  7  1  0
  7  8  1  0
  8  9  1  0
  9 10  1  0
 10 11  2  0
 11 12  1  0
 12 13  2  0
 13 14  1  0
 14 15  2  0
 13 16  1  0
 16 17  2  0
 17 18  1  0
 18 19  2  0
 19 20  1  0
 20 21  1  0
 21 22  2  0
 22 23  1  0
 23 24  2  0
 24 25  1  0
 25 26  2  0
 25 27  1  0
  3 28  1  0
  6  1  1  0
 15 10  1  0
 19 12  1  0
 26 21  1  0
  1 29  1  0
  1 30  1  0
  2 31  1  0
  2 32  1  0
  4 33  1  0
  4 34  1  0
  5 35  1  0
  5 36  1  0
  7 37  1  0
  7 38  1  0
  8 39  1  0
  8 40  1  0
 11 41  1  0
 14 42  1  0
 15 43  1  0
 17 44  1  0
 20 45  1  0
 22 46  1  0
 23 47  1  0
 24 48  1  0
 26 49  1  0
 28 50  1  0
 28 51  1  0
 28 52  1  0
M  END
>  <SMILES>  (3) 
C1CN(CCN1CCOC2=CC3=C(C=C2)N=CN=C3NC4=CC=CC(=C4)Cl)C

>  <QED>  (3) 
0.685

>  <SA_Score>  (3) 
2.17

>  <CompositeScore>  (3) 
0.468

>  <MW>  (3) 
397.9

$$$$
Candidate_4
     RDKit          3D

 51 54  0  0  0  0  0  0  0  0999 V2000
    2.2104    4.8229    0.0548 C   0  0  0  0  0  0  0  0  0  0  0  0
    2.0410    3.5489   -0.5507 O   0  0  0  0  0  0  0  0  0  0  0  0
    0.8243    2.9310   -0.3980 C   0  0  0  0  0  0  0  0  0  0  0  0
    0.7624    1.5808   -0.7777 C   0  0  0  0  0  0  0  0  0  0  0  0
   -0.4528    0.9051   -0.6641 C   0  0  0  0  0  0  0  0  0  0  0  0
   -1.6150    1.5589   -0.1768 C   0  0  0  0  0  0  0  0  0  0  0  0
   -1.5378    2.9020    0.2086 C   0  0  0  0  0  0  0  0  0  0  0  0
   -0.3252    3.5669    0.0854 C   0  0  0  0  0  0  0  0  0  0  0  0
   -2.5849    3.5763    0.6918 N   0  0  0  0  0  0  0  0  0  0  0  0
   -3.7330    2.9020    0.8092 C   0  0  0  0  0  0  0  0  0  0  0  0
   -3.9344    1.6255    0.4747 N   0  0  0  0  0  0  0  0  0  0  0  0
   -2.8814    0.9562   -0.0272 C   0  0  0  0  0  0  0  0  0  0  0  0
   -3.0508   -0.3934   -0.4439 N   0  0  0  0  0  0  0  0  0  0  0  0
   -4.1094   -1.2774   -0.1356 C   0  0  0  0  0  0  0  0  0  0  0  0
   -4.8363   -1.2008    1.0569 C   0  0  0  0  0  0  0  0  0  0  0  0
   -5.8227   -2.1410    1.3426 C   0  0  0  0  0  0  0  0  0  0  0  0
   -6.0930   -3.1880    0.4712 C   0  0  0  0  0  0  0  0  0  0  0  0
   -5.3552   -3.3038   -0.7023 C   0  0  0  0  0  0  0  0  0  0  0  0
   -4.3629   -2.3618   -0.9949 C   0  0  0  0  0  0  0  0  0  0  0  0
   -6.5191   -2.0413    2.4833 F   0  0  0  0  0  0  0  0  0  0  0  0
    1.9317    1.0292   -1.2263 O   0  0  0  0  0  0  0  0  0  0  0  0
    1.9761   -0.3365   -1.6378 C   0  0  0  0  0  0  0  0  0  0  0  0
    2.1516   -1.3199   -0.4617 C   0  0  0  0  0  0  0  0  0  0  0  0
    3.3576   -1.1104    0.3479 N   0  0  0  0  0  0  0  0  0  0  0  0
    3.4432   -2.0427    1.4710 C   0  0  0  0  0  0  0  0  0  0  0  0
    4.8660   -1.8343    1.9578 C   0  0  0  0  0  0  0  0  0  0  0  0
    5.6552   -1.4786    0.7038 C   0  0  0  0  0  0  0  0  0  0  0  0
    4.6114   -1.2688   -0.3872 C   0  0  0  0  0  0  0  0  0  0  0  0
    1.9884    4.7880    1.1267 H   0  0  0  0  0  0  0  0  0  0  0  0
    1.6036    5.5805   -0.4512 H   0  0  0  0  0  0  0  0  0  0  0  0
    3.2603    5.1096   -0.0585 H   0  0  0  0  0  0  0  0  0  0  0  0
   -0.5255   -0.1444   -0.9239 H   0  0  0  0  0  0  0  0  0  0  0  0
   -0.3054    4.6121    0.3788 H   0  0  0  0  0  0  0  0  0  0  0  0
   -4.5824    3.4439    1.2110 H   0  0  0  0  0  0  0  0  0  0  0  0
   -2.7764   -0.4662   -1.4184 H   0  0  0  0  0  0  0  0  0  0  0  0
   -4.6479   -0.4164    1.7824 H   0  0  0  0  0  0  0  0  0  0  0  0
   -6.8672   -3.9073    0.7179 H   0  0  0  0  0  0  0  0  0  0  0  0
   -5.5456   -4.1267   -1.3860 H   0  0  0  0  0  0  0  0  0  0  0  0
   -3.7904   -2.4816   -1.9114 H   0  0  0  0  0  0  0  0  0  0  0  0
    2.8301   -0.4287   -2.3190 H   0  0  0  0  0  0  0  0  0  0  0  0
    1.1026   -0.5990   -2.2462 H   0  0  0  0  0  0  0  0  0  0  0  0
    2.1356   -2.3415   -0.8632 H   0  0  0  0  0  0  0  0  0  0  0  0
    1.2856   -1.2240    0.2031 H   0  0  0  0  0  0  0  0  0  0  0  0
    2.7132   -1.8172    2.2545 H   0  0  0  0  0  0  0  0  0  0  0  0
    3.3047   -3.0821    1.1470 H   0  0  0  0  0  0  0  0  0  0  0  0
    5.2648   -2.7229    2.4572 H   0  0  0  0  0  0  0  0  0  0  0  0
    4.9090   -1.0004    2.6696 H   0  0  0  0  0  0  0  0  0  0  0  0
    6.2423   -0.5690    0.8739 H   0  0  0  0  0  0  0  0  0  0  0  0
    6.3494   -2.2805    0.4319 H   0  0  0  0  0  0  0  0  0  0  0  0
    4.8481   -0.3872   -0.9914 H   0  0  0  0  0  0  0  0  0  0  0  0
    4.5865   -2.1458   -1.0472 H   0  0  0  0  0  0  0  0  0  0  0  0
  1  2  1  0
  2  3  1  0
  3  4  2  0
  4  5  1  0
  5  6  2  0
  6  7  1  0
  7  8  2  0
  7  9  1  0
  9 10  2  0
 10 11  1  0
 11 12  2  0
 12 13  1  0
 13 14  1  0
 14 15  2  0
 15 16  1  0
 16 17  2  0
 17 18  1  0
 18 19  2  0
 16 20  1  0
  4 21  1  0
 21 22  1  0
 22 23  1  0
 23 24  1  0
 24 25  1  0
 25 26  1  0
 26 27  1  0
 27 28  1  0
  8  3  1  0
 12  6  1  0
 19 14  1  0
 28 24  1  0
  1 29  1  0
  1 30  1  0
  1 31  1  0
  5 32  1  0
  8 33  1  0
 10 34  1  0
 13 35  1  0
 15 36  1  0
 17 37  1  0
 18 38  1  0
 19 39  1  0
 22 40  1  0
 22 41  1  0
 23 42  1  0
 23 43  1  0
 25 44  1  0
 25 45  1  0
 26 46  1  0
 26 47  1  0
 27 48  1  0
 27 49  1  0
 28 50  1  0
 28 51  1  0
M  END
>  <SMILES>  (4) 
COC1=C(C=C2C(=C1)N=CN=C2NC3=CC(=CC=C3)F)OCCN4CCCC4

>  <QED>  (4) 
0.667

>  <SA_Score>  (4) 
2.18

>  <CompositeScore>  (4) 
0.449

>  <MW>  (4) 
382.4

$$$$
Candidate_5
     RDKit          3D

 47 50  0  0  0  0  0  0  0  0999 V2000
   -5.9007    0.7648    0.5068 C   0  0  0  0  0  0  0  0  0  0  0  0
   -7.1429    1.4064    0.4494 C   0  0  0  0  0  0  0  0  0  0  0  0
   -7.5674    1.9832   -0.7430 C   0  0  0  0  0  0  0  0  0  0  0  0
   -6.7568    1.9334   -1.8727 C   0  0  0  0  0  0  0  0  0  0  0  0
   -5.5165    1.2898   -1.8070 C   0  0  0  0  0  0  0  0  0  0  0  0
   -5.0817    0.6678   -0.6251 C   0  0  0  0  0  0  0  0  0  0  0  0
   -3.7940    0.0888   -0.5910 N   0  0  0  0  0  0  0  0  0  0  0  0
   -3.3048   -0.9405    0.2599 C   0  0  0  0  0  0  0  0  0  0  0  0
   -4.1737   -1.6661    0.9871 N   0  0  0  0  0  0  0  0  0  0  0  0
   -3.6624   -2.6419    1.7417 C   0  0  0  0  0  0  0  0  0  0  0  0
   -2.3699   -2.9662    1.8456 N   0  0  0  0  0  0  0  0  0  0  0  0
   -1.5110   -2.2334    1.1331 C   0  0  0  0  0  0  0  0  0  0  0  0
   -1.9156   -1.1793    0.3055 C   0  0  0  0  0  0  0  0  0  0  0  0
   -0.9319   -0.4392   -0.4018 C   0  0  0  0  0  0  0  0  0  0  0  0
    0.4253   -0.7505   -0.3077 C   0  0  0  0  0  0  0  0  0  0  0  0
    0.8110   -1.8038    0.5094 C   0  0  0  0  0  0  0  0  0  0  0  0
   -0.1567   -2.5278    1.2179 C   0  0  0  0  0  0  0  0  0  0  0  0
    1.2451    0.0527   -1.0462 O   0  0  0  0  0  0  0  0  0  0  0  0
    2.6461   -0.2402   -1.0802 C   0  0  0  0  0  0  0  0  0  0  0  0
    3.3799    0.4501    0.0814 C   0  0  0  0  0  0  0  0  0  0  0  0
    4.8081    0.1185    0.1408 N   0  0  0  0  0  0  0  0  0  0  0  0
    5.5794    0.6545   -0.9836 C   0  0  0  0  0  0  0  0  0  0  0  0
    7.0197    0.5713   -0.4967 C   0  0  0  0  0  0  0  0  0  0  0  0
    6.9283    0.5372    1.0244 C   0  0  0  0  0  0  0  0  0  0  0  0
    5.4473    0.6834    1.3325 C   0  0  0  0  0  0  0  0  0  0  0  0
   -9.2428    2.8533   -0.8246 Br  0  0  0  0  0  0  0  0  0  0  0  0
   -5.5788    0.3459    1.4566 H   0  0  0  0  0  0  0  0  0  0  0  0
   -7.7598    1.4534    1.3424 H   0  0  0  0  0  0  0  0  0  0  0  0
   -7.0736    2.3943   -2.8041 H   0  0  0  0  0  0  0  0  0  0  0  0
   -4.8922    1.2765   -2.6969 H   0  0  0  0  0  0  0  0  0  0  0  0
   -3.4273   -0.0606   -1.5253 H   0  0  0  0  0  0  0  0  0  0  0  0
   -4.3640   -3.2291    2.3242 H   0  0  0  0  0  0  0  0  0  0  0  0
   -1.2239    0.4033   -1.0251 H   0  0  0  0  0  0  0  0  0  0  0  0
    1.8501   -2.0901    0.6370 H   0  0  0  0  0  0  0  0  0  0  0  0
    0.1616   -3.3467    1.8604 H   0  0  0  0  0  0  0  0  0  0  0  0
    2.8399   -1.3184   -1.1244 H   0  0  0  0  0  0  0  0  0  0  0  0
    3.0122    0.1671   -2.0297 H   0  0  0  0  0  0  0  0  0  0  0  0
    2.9068    0.1446    1.0226 H   0  0  0  0  0  0  0  0  0  0  0  0
    3.2213    1.5350    0.0142 H   0  0  0  0  0  0  0  0  0  0  0  0
    5.4391    0.0726   -1.8998 H   0  0  0  0  0  0  0  0  0  0  0  0
    5.3197    1.7006   -1.1903 H   0  0  0  0  0  0  0  0  0  0  0  0
    7.6072    1.4265   -0.8463 H   0  0  0  0  0  0  0  0  0  0  0  0
    7.5051   -0.3415   -0.8610 H   0  0  0  0  0  0  0  0  0  0  0  0
    7.3082   -0.4218    1.3963 H   0  0  0  0  0  0  0  0  0  0  0  0
    7.5192    1.3342    1.4867 H   0  0  0  0  0  0  0  0  0  0  0  0
    5.1966    1.7441    1.4627 H   0  0  0  0  0  0  0  0  0  0  0  0
    5.1713    0.1439    2.2440 H   0  0  0  0  0  0  0  0  0  0  0  0
  1  2  2  0
  2  3  1  0
  3  4  2  0
  4  5  1  0
  5  6  2  0
  6  7  1  0
  7  8  1  0
  8  9  2  0
  9 10  1  0
 10 11  2  0
 11 12  1  0
 12 13  2  0
 13 14  1  0
 14 15  2  0
 15 16  1  0
 16 17  2  0
 15 18  1  0
 18 19  1  0
 19 20  1  0
 20 21  1  0
 21 22  1  0
 22 23  1  0
 23 24  1  0
 24 25  1  0
  3 26  1  0
  6  1  1  0
 13  8  1  0
 17 12  1  0
 25 21  1  0
  1 27  1  0
  2 28  1  0
  4 29  1  0
  5 30  1  0
  7 31  1  0
 10 32  1  0
 14 33  1  0
 16 34  1  0
 17 35  1  0
 19 36  1  0
 19 37  1  0
 20 38  1  0
 20 39  1  0
 22 40  1  0
 22 41  1  0
 23 42  1  0
 23 43  1  0
 24 44  1  0
 24 45  1  0
 25 46  1  0
 25 47  1  0
M  END
>  <SMILES>  (5) 
C1=CC(=CC=C1NC2=NC=NC3=C2C=C(C=C3)OCCN4CCCC4)Br

>  <QED>  (5) 
0.640

>  <SA_Score>  (5) 
2.08

>  <CompositeScore>  (5) 
0.432

>  <MW>  (5) 
413.3

$$$$
Candidate_6
     RDKit          3D

 47 49  0  0  0  0  0  0  0  0999 V2000
   -5.9279    0.7568    2.4978 C   0  0  0  0  0  0  0  0  0  0  0  0
   -5.5351   -0.2479    1.5052 N   0  0  0  0  0  0  0  0  0  0  0  0
   -6.7260   -0.7542    0.8193 C   0  0  0  0  0  0  0  0  0  0  0  0
   -4.5628    0.3347    0.5601 C   0  0  0  0  0  0  0  0  0  0  0  0
   -3.9110   -0.6929   -0.3808 C   0  0  0  0  0  0  0  0  0  0  0  0
   -2.8895   -0.0748   -1.1682 O   0  0  0  0  0  0  0  0  0  0  0  0
   -1.5905   -0.1084   -0.7290 C   0  0  0  0  0  0  0  0  0  0  0  0
   -0.6173    0.2815   -1.6624 C   0  0  0  0  0  0  0  0  0  0  0  0
    0.7255    0.2907   -1.2809 C   0  0  0  0  0  0  0  0  0  0  0  0
    1.1163   -0.0826    0.0311 C   0  0  0  0  0  0  0  0  0  0  0  0
    0.1392   -0.4807    0.9507 C   0  0  0  0  0  0  0  0  0  0  0  0
   -1.1941   -0.4795    0.5603 C   0  0  0  0  0  0  0  0  0  0  0  0
    0.4346   -0.8612    2.1963 N   0  0  0  0  0  0  0  0  0  0  0  0
    1.7262   -0.8596    2.5385 C   0  0  0  0  0  0  0  0  0  0  0  0
    2.7469   -0.4989    1.7575 N   0  0  0  0  0  0  0  0  0  0  0  0
    2.4434   -0.0989    0.5098 C   0  0  0  0  0  0  0  0  0  0  0  0
    3.4876    0.3464   -0.3487 N   0  0  0  0  0  0  0  0  0  0  0  0
    4.8805    0.1690   -0.1917 C   0  0  0  0  0  0  0  0  0  0  0  0
    5.7573    1.0714   -0.8098 C   0  0  0  0  0  0  0  0  0  0  0  0
    7.1377    0.8879   -0.7305 C   0  0  0  0  0  0  0  0  0  0  0  0
    7.6731   -0.2062   -0.0592 C   0  0  0  0  0  0  0  0  0  0  0  0
    6.8185   -1.1330    0.5294 C   0  0  0  0  0  0  0  0  0  0  0  0
    5.4323   -0.9497    0.4499 C   0  0  0  0  0  0  0  0  0  0  0  0
    9.3753   -0.4359    0.0374 Cl  0  0  0  0  0  0  0  0  0  0  0  0
    7.9377    1.7869   -1.3237 F   0  0  0  0  0  0  0  0  0  0  0  0
   -1.0758    0.6350   -2.9054 O   0  0  0  0  0  0  0  0  0  0  0  0
   -0.1154    0.8950   -3.9192 C   0  0  0  0  0  0  0  0  0  0  0  0
   -5.0547    1.1047    3.0609 H   0  0  0  0  0  0  0  0  0  0  0  0
   -6.4118    1.6259    2.0373 H   0  0  0  0  0  0  0  0  0  0  0  0
   -6.6182    0.3248    3.2311 H   0  0  0  0  0  0  0  0  0  0  0  0
   -7.4450   -1.1548    1.5432 H   0  0  0  0  0  0  0  0  0  0  0  0
   -7.2279    0.0240    0.2330 H   0  0  0  0  0  0  0  0  0  0  0  0
   -6.4748   -1.5853    0.1529 H   0  0  0  0  0  0  0  0  0  0  0  0
   -5.0219    1.1334   -0.0386 H   0  0  0  0  0  0  0  0  0  0  0  0
   -3.7623    0.8243    1.1290 H   0  0  0  0  0  0  0  0  0  0  0  0
   -4.6581   -1.0539   -1.0965 H   0  0  0  0  0  0  0  0  0  0  0  0
   -3.5482   -1.5825    0.1471 H   0  0  0  0  0  0  0  0  0  0  0  0
    1.4947    0.5732   -1.9915 H   0  0  0  0  0  0  0  0  0  0  0  0
   -1.9224   -0.7737    1.3105 H   0  0  0  0  0  0  0  0  0  0  0  0
    1.9675   -1.1781    3.5468 H   0  0  0  0  0  0  0  0  0  0  0  0
    3.2624    1.2855   -0.6633 H   0  0  0  0  0  0  0  0  0  0  0  0
    5.3855    1.9320   -1.3568 H   0  0  0  0  0  0  0  0  0  0  0  0
    7.2154   -2.0036    1.0447 H   0  0  0  0  0  0  0  0  0  0  0  0
    4.7854   -1.7024    0.8954 H   0  0  0  0  0  0  0  0  0  0  0  0
    0.4749    1.7858   -3.6814 H   0  0  0  0  0  0  0  0  0  0  0  0
   -0.6562    1.0935   -4.8496 H   0  0  0  0  0  0  0  0  0  0  0  0
    0.5290    0.0259   -4.0879 H   0  0  0  0  0  0  0  0  0  0  0  0
  1  2  1  0
  2  3  1  0
  2  4  1  0
  4  5  1  0
  5  6  1  0
  6  7  1  0
  7  8  2  0
  8  9  1  0
  9 10  2  0
 10 11  1  0
 11 12  2  0
 11 13  1  0
 13 14  2  0
 14 15  1  0
 15 16  2  0
 16 17  1  0
 17 18  1  0
 18 19  2  0
 19 20  1  0
 20 21  2  0
 21 22  1  0
 22 23  2  0
 21 24  1  0
 20 25  1  0
  8 26  1  0
 26 27  1  0
 12  7  1  0
 16 10  1  0
 23 18  1  0
  1 28  1  0
  1 29  1  0
  1 30  1  0
  3 31  1  0
  3 32  1  0
  3 33  1  0
  4 34  1  0
  4 35  1  0
  5 36  1  0
  5 37  1  0
  9 38  1  0
 12 39  1  0
 14 40  1  0
 17 41  1  0
 19 42  1  0
 22 43  1  0
 23 44  1  0
 27 45  1  0
 27 46  1  0
 27 47  1  0
M  END
>  <SMILES>  (6) 
CN(C)CCOC1=C(C=C2C(=C1)N=CN=C2NC3=CC(=C(C=C3)Cl)F)OC

>  <QED>  (6) 
0.655

>  <SA_Score>  (6) 
2.27

>  <CompositeScore>  (6) 
0.428

>  <MW>  (6) 
390.8

$$$$
Candidate_7
     RDKit          3D

 50 52  0  0  0  0  0  0  0  0999 V2000
   -7.3270   -0.4202   -1.3383 C   0  0  0  0  0  0  0  0  0  0  0  0
   -6.7646    0.8532   -0.8954 N   0  0  0  0  0  0  0  0  0  0  0  0
   -7.2017    1.1742    0.4598 C   0  0  0  0  0  0  0  0  0  0  0  0
   -5.3076    0.9116   -1.0616 C   0  0  0  0  0  0  0  0  0  0  0  0
   -4.4705    0.0113   -0.1476 C   0  0  0  0  0  0  0  0  0  0  0  0
   -2.9955    0.0578   -0.5482 C   0  0  0  0  0  0  0  0  0  0  0  0
   -2.2648   -0.7541    0.3720 O   0  0  0  0  0  0  0  0  0  0  0  0
   -0.9083   -0.5601    0.4471 C   0  0  0  0  0  0  0  0  0  0  0  0
   -0.0533   -0.1071   -0.5647 C   0  0  0  0  0  0  0  0  0  0  0  0
    1.3090    0.0199   -0.2722 C   0  0  0  0  0  0  0  0  0  0  0  0
    1.8352   -0.3247    1.0022 C   0  0  0  0  0  0  0  0  0  0  0  0
    0.9767   -0.8172    1.9887 C   0  0  0  0  0  0  0  0  0  0  0  0
   -0.3727   -0.9272    1.6923 C   0  0  0  0  0  0  0  0  0  0  0  0
    1.4038   -1.1858    3.1998 N   0  0  0  0  0  0  0  0  0  0  0  0
    2.7143   -1.0718    3.4366 C   0  0  0  0  0  0  0  0  0  0  0  0
    3.6338   -0.6202    2.5804 N   0  0  0  0  0  0  0  0  0  0  0  0
    3.1949   -0.2384    1.3682 C   0  0  0  0  0  0  0  0  0  0  0  0
    4.1215    0.2913    0.4300 N   0  0  0  0  0  0  0  0  0  0  0  0
    5.5263    0.1491    0.4064 C   0  0  0  0  0  0  0  0  0  0  0  0
    6.1795   -0.9730    0.9380 C   0  0  0  0  0  0  0  0  0  0  0  0
    7.5657   -1.1362    0.8141 C   0  0  0  0  0  0  0  0  0  0  0  0
    8.3182   -0.1848    0.1326 C   0  0  0  0  0  0  0  0  0  0  0  0
    7.6744    0.9128   -0.4228 C   0  0  0  0  0  0  0  0  0  0  0  0
    6.2955    1.0809   -0.3030 C   0  0  0  0  0  0  0  0  0  0  0  0
    8.3879    1.8214   -1.1008 F   0  0  0  0  0  0  0  0  0  0  0  0
   -0.5899    0.1791   -1.7899 O   0  0  0  0  0  0  0  0  0  0  0  0
    0.2977    0.3770   -2.8848 C   0  0  0  0  0  0  0  0  0  0  0  0
   -7.0257   -1.2579   -0.7019 H   0  0  0  0  0  0  0  0  0  0  0  0
   -7.0225   -0.6396   -2.3668 H   0  0  0  0  0  0  0  0  0  0  0  0
   -8.4203   -0.3718   -1.3405 H   0  0  0  0  0  0  0  0  0  0  0  0
   -6.9149    0.4073    1.1872 H   0  0  0  0  0  0  0  0  0  0  0  0
   -8.2918    1.2787    0.4910 H   0  0  0  0  0  0  0  0  0  0  0  0
   -6.7874    2.1352    0.7861 H   0  0  0  0  0  0  0  0  0  0  0  0
   -4.9905    1.9517   -0.9134 H   0  0  0  0  0  0  0  0  0  0  0  0
   -5.0678    0.6920   -2.1099 H   0  0  0  0  0  0  0  0  0  0  0  0
   -4.8121   -1.0302   -0.1894 H   0  0  0  0  0  0  0  0  0  0  0  0
   -4.5680    0.3233    0.9004 H   0  0  0  0  0  0  0  0  0  0  0  0
   -2.6422    1.0969   -0.5207 H   0  0  0  0  0  0  0  0  0  0  0  0
   -2.8979   -0.3558   -1.5589 H   0  0  0  0  0  0  0  0  0  0  0  0
    2.0006    0.3686   -1.0321 H   0  0  0  0  0  0  0  0  0  0  0  0
   -1.0438   -1.3089    2.4601 H   0  0  0  0  0  0  0  0  0  0  0  0
    3.0635   -1.3727    4.4176 H   0  0  0  0  0  0  0  0  0  0  0  0
    3.8334    1.2353    0.1862 H   0  0  0  0  0  0  0  0  0  0  0  0
    5.6115   -1.7457    1.4516 H   0  0  0  0  0  0  0  0  0  0  0  0
    8.0472   -2.0119    1.2415 H   0  0  0  0  0  0  0  0  0  0  0  0
    9.3916   -0.2973    0.0205 H   0  0  0  0  0  0  0  0  0  0  0  0
    5.8395    1.9453   -0.7729 H   0  0  0  0  0  0  0  0  0  0  0  0
    0.8719    1.3010   -2.7610 H   0  0  0  0  0  0  0  0  0  0  0  0
   -0.3085    0.4832   -3.7884 H   0  0  0  0  0  0  0  0  0  0  0  0
    0.9559   -0.4863   -3.0247 H   0  0  0  0  0  0  0  0  0  0  0  0
  1  2  1  0
  2  3  1  0
  2  4  1  0
  4  5  1  0
  5  6  1  0
  6  7  1  0
  7  8  1  0
  8  9  2  0
  9 10  1  0
 10 11  2  0
 11 12  1  0
 12 13  2  0
 12 14  1  0
 14 15  2  0
 15 16  1  0
 16 17  2  0
 17 18  1  0
 18 19  1  0
 19 20  2  0
 20 21  1  0
 21 22  2  0
 22 23  1  0
 23 24  2  0
 23 25  1  0
  9 26  1  0
 26 27  1  0
 13  8  1  0
 17 11  1  0
 24 19  1  0
  1 28  1  0
  1 29  1  0
  1 30  1  0
  3 31  1  0
  3 32  1  0
  3 33  1  0
  4 34  1  0
  4 35  1  0
  5 36  1  0
  5 37  1  0
  6 38  1  0
  6 39  1  0
 10 40  1  0
 13 41  1  0
 15 42  1  0
 18 43  1  0
 20 44  1  0
 21 45  1  0
 22 46  1  0
 24 47  1  0
 27 48  1  0
 27 49  1  0
 27 50  1  0
M  END
>  <SMILES>  (7) 
CN(C)CCCOC1=C(C=C2C(=C1)N=CN=C2NC3=CC=CC(=C3)F)OC

>  <QED>  (7) 
0.608

>  <SA_Score>  (7) 
2.19

>  <CompositeScore>  (7) 
0.389

>  <MW>  (7) 
370.4

$$$$
Candidate_8
     RDKit          3D

 51 54  0  0  0  0  0  0  0  0999 V2000
    1.4702    5.3379    0.2748 C   0  0  0  0  0  0  0  0  0  0  0  0
    1.5616    3.9246    0.1585 O   0  0  0  0  0  0  0  0  0  0  0  0
    0.3977    3.2010    0.2400 C   0  0  0  0  0  0  0  0  0  0  0  0
    0.5198    1.8140    0.0653 C   0  0  0  0  0  0  0  0  0  0  0  0
   -0.6240    1.0174    0.1401 C   0  0  0  0  0  0  0  0  0  0  0  0
   -1.8981    1.5872    0.3977 C   0  0  0  0  0  0  0  0  0  0  0  0
   -2.0097    2.9732    0.5590 C   0  0  0  0  0  0  0  0  0  0  0  0
   -0.8643    3.7548    0.4820 C   0  0  0  0  0  0  0  0  0  0  0  0
   -3.1766    3.5823    0.7845 N   0  0  0  0  0  0  0  0  0  0  0  0
   -4.2617    2.8041    0.8422 C   0  0  0  0  0  0  0  0  0  0  0  0
   -4.2853    1.4760    0.7110 N   0  0  0  0  0  0  0  0  0  0  0  0
   -3.1060    0.8655    0.4985 C   0  0  0  0  0  0  0  0  0  0  0  0
   -3.0702   -0.5528    0.3915 N   0  0  0  0  0  0  0  0  0  0  0  0
   -4.1528   -1.4409    0.1986 C   0  0  0  0  0  0  0  0  0  0  0  0
   -5.3075   -1.0816   -0.5115 C   0  0  0  0  0  0  0  0  0  0  0  0
   -6.3271   -2.0101   -0.7356 C   0  0  0  0  0  0  0  0  0  0  0  0
   -6.1902   -3.3154   -0.2750 C   0  0  0  0  0  0  0  0  0  0  0  0
   -5.0391   -3.7057    0.3978 C   0  0  0  0  0  0  0  0  0  0  0  0
   -4.0208   -2.7751    0.6214 C   0  0  0  0  0  0  0  0  0  0  0  0
   -7.1551   -4.2237   -0.4817 F   0  0  0  0  0  0  0  0  0  0  0  0
   -7.7398   -1.5284   -1.5954 Cl  0  0  0  0  0  0  0  0  0  0  0  0
    1.7839    1.3439   -0.1791 O   0  0  0  0  0  0  0  0  0  0  0  0
    1.9651   -0.0677   -0.3116 C   0  0  0  0  0  0  0  0  0  0  0  0
    3.4566   -0.3328   -0.5732 C   0  0  0  0  0  0  0  0  0  0  0  0
    3.7591   -1.7688   -0.7338 N   0  0  0  0  0  0  0  0  0  0  0  0
    5.1031   -1.9673   -1.3031 C   0  0  0  0  0  0  0  0  0  0  0  0
    6.0689   -1.8856   -0.1320 C   0  0  0  0  0  0  0  0  0  0  0  0
    5.2408   -2.2724    1.0844 C   0  0  0  0  0  0  0  0  0  0  0  0
    3.8258   -2.4731    0.5574 C   0  0  0  0  0  0  0  0  0  0  0  0
    0.8477    5.7611   -0.5205 H   0  0  0  0  0  0  0  0  0  0  0  0
    2.4782    5.7484    0.1614 H   0  0  0  0  0  0  0  0  0  0  0  0
    1.1026    5.6288    1.2642 H   0  0  0  0  0  0  0  0  0  0  0  0
   -0.5571   -0.0535   -0.0197 H   0  0  0  0  0  0  0  0  0  0  0  0
   -0.9910    4.8245    0.6177 H   0  0  0  0  0  0  0  0  0  0  0  0
   -5.2121    3.2975    1.0149 H   0  0  0  0  0  0  0  0  0  0  0  0
   -2.4076   -0.9106    1.0724 H   0  0  0  0  0  0  0  0  0  0  0  0
   -5.4181   -0.0737   -0.9022 H   0  0  0  0  0  0  0  0  0  0  0  0
   -4.9385   -4.7316    0.7380 H   0  0  0  0  0  0  0  0  0  0  0  0
   -3.1211   -3.1039    1.1364 H   0  0  0  0  0  0  0  0  0  0  0  0
    1.3799   -0.4429   -1.1602 H   0  0  0  0  0  0  0  0  0  0  0  0
    1.6461   -0.5636    0.6116 H   0  0  0  0  0  0  0  0  0  0  0  0
    3.7123    0.2016   -1.4984 H   0  0  0  0  0  0  0  0  0  0  0  0
    4.0617    0.1375    0.2128 H   0  0  0  0  0  0  0  0  0  0  0  0
    5.3512   -1.2614   -2.1031 H   0  0  0  0  0  0  0  0  0  0  0  0
    5.1474   -2.9707   -1.7455 H   0  0  0  0  0  0  0  0  0  0  0  0
    6.9276   -2.5505   -0.2683 H   0  0  0  0  0  0  0  0  0  0  0  0
    6.4497   -0.8645   -0.0136 H   0  0  0  0  0  0  0  0  0  0  0  0
    5.6211   -3.1839    1.5569 H   0  0  0  0  0  0  0  0  0  0  0  0
    5.2724   -1.4690    1.8291 H   0  0  0  0  0  0  0  0  0  0  0  0
    3.0678   -2.1583    1.2811 H   0  0  0  0  0  0  0  0  0  0  0  0
    3.6553   -3.5418    0.3750 H   0  0  0  0  0  0  0  0  0  0  0  0
  1  2  1  0
  2  3  1  0
  3  4  2  0
  4  5  1  0
  5  6  2  0
  6  7  1  0
  7  8  2  0
  7  9  1  0
  9 10  2  0
 10 11  1  0
 11 12  2  0
 12 13  1  0
 13 14  1  0
 14 15  2  0
 15 16  1  0
 16 17  2  0
 17 18  1  0
 18 19  2  0
 17 20  1  0
 16 21  1  0
  4 22  1  0
 22 23  1  0
 23 24  1  0
 24 25  1  0
 25 26  1  0
 26 27  1  0
 27 28  1  0
 28 29  1  0
  8  3  1  0
 12  6  1  0
 19 14  1  0
 29 25  1  0
  1 30  1  0
  1 31  1  0
  1 32  1  0
  5 33  1  0
  8 34  1  0
 10 35  1  0
 13 36  1  0
 15 37  1  0
 18 38  1  0
 19 39  1  0
 23 40  1  0
 23 41  1  0
 24 42  1  0
 24 43  1  0
 26 44  1  0
 26 45  1  0
 27 46  1  0
 27 47  1  0
 28 48  1  0
 28 49  1  0
 29 50  1  0
 29 51  1  0
M  END
>  <SMILES>  (8) 
COC1=C(C=C2C(=C1)N=CN=C2NC3=CC(=C(C=C3)F)Cl)OCCN4CCCC4

>  <QED>  (8) 
0.605

>  <SA_Score>  (8) 
2.25

>  <CompositeScore>  (8) 
0.380

>  <MW>  (8) 
416.9

$$$$
Candidate_9
     RDKit          3D

 55 58  0  0  0  0  0  0  0  0999 V2000
   -5.6389   -0.8951    0.3100 C   0  0  0  0  0  0  0  0  0  0  0  0
   -6.0051    0.0870    1.4500 C   0  0  0  0  0  0  0  0  0  0  0  0
   -6.3380    1.4576    1.0200 N   0  0  0  0  0  0  0  0  0  0  0  0
   -5.2799    1.9500    0.1157 C   0  0  0  0  0  0  0  0  0  0  0  0
   -4.9231    1.0053   -1.0561 C   0  0  0  0  0  0  0  0  0  0  0  0
   -4.6982   -0.4022   -0.7048 N   0  0  0  0  0  0  0  0  0  0  0  0
   -3.2986   -0.7779   -0.5019 C   0  0  0  0  0  0  0  0  0  0  0  0
   -2.5478   -0.1240    0.6640 C   0  0  0  0  0  0  0  0  0  0  0  0
   -1.1382   -0.7046    0.8080 C   0  0  0  0  0  0  0  0  0  0  0  0
   -0.3841   -0.4015   -0.3736 O   0  0  0  0  0  0  0  0  0  0  0  0
    0.7163   -1.2027   -0.4947 C   0  0  0  0  0  0  0  0  0  0  0  0
    1.9732   -0.6120   -0.4167 C   0  0  0  0  0  0  0  0  0  0  0  0
    3.1468   -1.3913   -0.5795 C   0  0  0  0  0  0  0  0  0  0  0  0
    3.0293   -2.7688   -0.8212 C   0  0  0  0  0  0  0  0  0  0  0  0
    1.7598   -3.3249   -0.9257 C   0  0  0  0  0  0  0  0  0  0  0  0
    0.6024   -2.5561   -0.7782 C   0  0  0  0  0  0  0  0  0  0  0  0
    4.0857   -3.5713   -0.9626 N   0  0  0  0  0  0  0  0  0  0  0  0
    5.2901   -3.0008   -0.8572 C   0  0  0  0  0  0  0  0  0  0  0  0
    5.5339   -1.7063   -0.6391 N   0  0  0  0  0  0  0  0  0  0  0  0
    4.4652   -0.8978   -0.5134 C   0  0  0  0  0  0  0  0  0  0  0  0
    4.6682    0.4986   -0.3256 N   0  0  0  0  0  0  0  0  0  0  0  0
    5.8768    1.1595   -0.0108 C   0  0  0  0  0  0  0  0  0  0  0  0
    6.0795    2.4738   -0.4589 C   0  0  0  0  0  0  0  0  0  0  0  0
    7.2437    3.1762   -0.1271 C   0  0  0  0  0  0  0  0  0  0  0  0
    8.2079    2.5769    0.6805 C   0  0  0  0  0  0  0  0  0  0  0  0
    8.0102    1.2906    1.1680 C   0  0  0  0  0  0  0  0  0  0  0  0
    6.8465    0.5906    0.8277 C   0  0  0  0  0  0  0  0  0  0  0  0
    9.6395    3.4403    1.0933 Cl  0  0  0  0  0  0  0  0  0  0  0  0
   -7.6545    1.5116    0.3822 C   0  0  0  0  0  0  0  0  0  0  0  0
   -6.5655   -1.1587   -0.2174 H   0  0  0  0  0  0  0  0  0  0  0  0
   -5.2847   -1.8377    0.7445 H   0  0  0  0  0  0  0  0  0  0  0  0
   -6.8351   -0.3323    2.0353 H   0  0  0  0  0  0  0  0  0  0  0  0
   -5.1661    0.1535    2.1523 H   0  0  0  0  0  0  0  0  0  0  0  0
   -4.3826    2.1303    0.7190 H   0  0  0  0  0  0  0  0  0  0  0  0
   -5.5578    2.9332   -0.2824 H   0  0  0  0  0  0  0  0  0  0  0  0
   -5.7525    1.0263   -1.7739 H   0  0  0  0  0  0  0  0  0  0  0  0
   -4.0649    1.4150   -1.6036 H   0  0  0  0  0  0  0  0  0  0  0  0
   -2.7589   -0.5698   -1.4339 H   0  0  0  0  0  0  0  0  0  0  0  0
   -3.2481   -1.8694   -0.3936 H   0  0  0  0  0  0  0  0  0  0  0  0
   -3.0810   -0.2827    1.6061 H   0  0  0  0  0  0  0  0  0  0  0  0
   -2.4666    0.9542    0.4903 H   0  0  0  0  0  0  0  0  0  0  0  0
   -0.6400   -0.2377    1.6677 H   0  0  0  0  0  0  0  0  0  0  0  0
   -1.2089   -1.7837    0.9950 H   0  0  0  0  0  0  0  0  0  0  0  0
    2.0369    0.4528   -0.2103 H   0  0  0  0  0  0  0  0  0  0  0  0
    1.6668   -4.3887   -1.1357 H   0  0  0  0  0  0  0  0  0  0  0  0
   -0.3732   -3.0211   -0.8957 H   0  0  0  0  0  0  0  0  0  0  0  0
    6.1521   -3.6508   -0.9605 H   0  0  0  0  0  0  0  0  0  0  0  0
    4.1439    0.9981   -1.0371 H   0  0  0  0  0  0  0  0  0  0  0  0
    5.3369    2.9635   -1.0842 H   0  0  0  0  0  0  0  0  0  0  0  0
    7.3877    4.1875   -0.4985 H   0  0  0  0  0  0  0  0  0  0  0  0
    8.7508    0.8220    1.8104 H   0  0  0  0  0  0  0  0  0  0  0  0
    6.7006   -0.4050    1.2365 H   0  0  0  0  0  0  0  0  0  0  0  0
   -7.7345    0.8730   -0.5053 H   0  0  0  0  0  0  0  0  0  0  0  0
   -7.8911    2.5400    0.0824 H   0  0  0  0  0  0  0  0  0  0  0  0
   -8.4329    1.2075    1.0917 H   0  0  0  0  0  0  0  0  0  0  0  0
  1  2  1  0
  2  3  1  0
  3  4  1  0
  4  5  1  0
  5  6  1  0
  6  7  1  0
  7  8  1  0
  8  9  1  0
  9 10  1  0
 10 11  1  0
 11 12  2  0
 12 13  1  0
 13 14  2  0
 14 15  1  0
 15 16  2  0
 14 17  1  0
 17 18  2  0
 18 19  1  0
 19 20  2  0
 20 21  1  0
 21 22  1  0
 22 23  2  0
 23 24  1  0
 24 25  2  0
 25 26  1  0
 26 27  2  0
 25 28  1  0
  3 29  1  0
  6  1  1  0
 16 11  1  0
 20 13  1  0
 27 22  1  0
  1 30  1  0
  1 31  1  0
  2 32  1  0
  2 33  1  0
  4 34  1  0
  4 35  1  0
  5 36  1  0
  5 37  1  0
  7 38  1  0
  7 39  1  0
  8 40  1  0
  8 41  1  0
  9 42  1  0
  9 43  1  0
 12 44  1  0
 15 45  1  0
 16 46  1  0
 18 47  1  0
 21 48  1  0
 23 49  1  0
 24 50  1  0
 26 51  1  0
 27 52  1  0
 29 53  1  0
 29 54  1  0
 29 55  1  0
M  END
>  <SMILES>  (9) 
C1CN(CCN1CCCOC2=CC3=C(C=C2)N=CN=C3NC4=CC=C(C=C4)Cl)C

>  <QED>  (9) 
0.592

>  <SA_Score>  (9) 
2.14

>  <CompositeScore>  (9) 
0.377

>  <MW>  (9) 
411.9

$$$$
Candidate_10
     RDKit          3D

 47 49  0  0  0  0  0  0  0  0999 V2000
   -5.8814    0.6605    2.6392 C   0  0  0  0  0  0  0  0  0  0  0  0
   -5.5139   -0.2917    1.5870 N   0  0  0  0  0  0  0  0  0  0  0  0
   -6.7204   -0.7512    0.8955 C   0  0  0  0  0  0  0  0  0  0  0  0
   -4.5529    0.3341    0.6581 C   0  0  0  0  0  0  0  0  0  0  0  0
   -3.9257   -0.6457   -0.3482 C   0  0  0  0  0  0  0  0  0  0  0  0
   -2.9131    0.0069   -1.1192 O   0  0  0  0  0  0  0  0  0  0  0  0
   -1.6071   -0.0589   -0.7052 C   0  0  0  0  0  0  0  0  0  0  0  0
   -0.6472    0.3748   -1.6331 C   0  0  0  0  0  0  0  0  0  0  0  0
    0.7020    0.3547   -1.2752 C   0  0  0  0  0  0  0  0  0  0  0  0
    1.1125   -0.0919    0.0076 C   0  0  0  0  0  0  0  0  0  0  0  0
    0.1485   -0.5330    0.9212 C   0  0  0  0  0  0  0  0  0  0  0  0
   -1.1913   -0.5020    0.5549 C   0  0  0  0  0  0  0  0  0  0  0  0
    0.4623   -0.9825    2.1389 N   0  0  0  0  0  0  0  0  0  0  0  0
    1.7597   -1.0078    2.4579 C   0  0  0  0  0  0  0  0  0  0  0  0
    2.7693   -0.6117    1.6798 N   0  0  0  0  0  0  0  0  0  0  0  0
    2.4475   -0.1426    0.4611 C   0  0  0  0  0  0  0  0  0  0  0  0
    3.4797    0.3420   -0.3904 N   0  0  0  0  0  0  0  0  0  0  0  0
    4.8741    0.1478   -0.2690 C   0  0  0  0  0  0  0  0  0  0  0  0
    5.7458    1.0758   -0.8553 C   0  0  0  0  0  0  0  0  0  0  0  0
    7.1259    0.8803   -0.8122 C   0  0  0  0  0  0  0  0  0  0  0  0
    7.6651   -0.2509   -0.2097 C   0  0  0  0  0  0  0  0  0  0  0  0
    6.8157   -1.2028    0.3458 C   0  0  0  0  0  0  0  0  0  0  0  0
    5.4297   -1.0064    0.3021 C   0  0  0  0  0  0  0  0  0  0  0  0
    9.5348   -0.5187   -0.1526 Br  0  0  0  0  0  0  0  0  0  0  0  0
    7.9200    1.8050   -1.3727 F   0  0  0  0  0  0  0  0  0  0  0  0
   -1.1244    0.7982   -2.8469 O   0  0  0  0  0  0  0  0  0  0  0  0
   -0.1794    1.1067   -3.8617 C   0  0  0  0  0  0  0  0  0  0  0  0
   -6.3657    1.5569    2.2351 H   0  0  0  0  0  0  0  0  0  0  0  0
   -4.9959    0.9708    3.2051 H   0  0  0  0  0  0  0  0  0  0  0  0
   -6.5627    0.1945    3.3600 H   0  0  0  0  0  0  0  0  0  0  0  0
   -6.4876   -1.5468    0.1809 H   0  0  0  0  0  0  0  0  0  0  0  0
   -7.2258    0.0614    0.3611 H   0  0  0  0  0  0  0  0  0  0  0  0
   -7.4304   -1.1851    1.6091 H   0  0  0  0  0  0  0  0  0  0  0  0
   -5.0155    1.1674    0.1116 H   0  0  0  0  0  0  0  0  0  0  0  0
   -3.7389    0.7863    1.2386 H   0  0  0  0  0  0  0  0  0  0  0  0
   -4.6879   -0.9624   -1.0689 H   0  0  0  0  0  0  0  0  0  0  0  0
   -3.5608   -1.5650    0.1245 H   0  0  0  0  0  0  0  0  0  0  0  0
    1.4610    0.6702   -1.9829 H   0  0  0  0  0  0  0  0  0  0  0  0
   -1.9087   -0.8318    1.3007 H   0  0  0  0  0  0  0  0  0  0  0  0
    2.0160   -1.3822    3.4431 H   0  0  0  0  0  0  0  0  0  0  0  0
    3.2566    1.2983   -0.6493 H   0  0  0  0  0  0  0  0  0  0  0  0
    5.3700    1.9662   -1.3492 H   0  0  0  0  0  0  0  0  0  0  0  0
    7.2121   -2.1030    0.8080 H   0  0  0  0  0  0  0  0  0  0  0  0
    4.7857   -1.7773    0.7195 H   0  0  0  0  0  0  0  0  0  0  0  0
    0.4214    1.9795   -3.5862 H   0  0  0  0  0  0  0  0  0  0  0  0
    0.4557    0.2439   -4.0884 H   0  0  0  0  0  0  0  0  0  0  0  0
   -0.7345    1.3590   -4.7703 H   0  0  0  0  0  0  0  0  0  0  0  0
  1  2  1  0
  2  3  1  0
  2  4  1  0
  4  5  1  0
  5  6  1  0
  6  7  1  0
  7  8  2  0
  8  9  1  0
  9 10  2  0
 10 11  1  0
 11 12  2  0
 11 13  1  0
 13 14  2  0
 14 15  1  0
 15 16  2  0
 16 17  1  0
 17 18  1  0
 18 19  2  0
 19 20  1  0
 20 21  2  0
 21 22  1  0
 22 23  2  0
 21 24  1  0
 20 25  1  0
  8 26  1  0
 26 27  1  0
 12  7  1  0
 16 10  1  0
 23 18  1  0
  1 28  1  0
  1 29  1  0
  1 30  1  0
  3 31  1  0
  3 32  1  0
  3 33  1  0
  4 34  1  0
  4 35  1  0
  5 36  1  0
  5 37  1  0
  9 38  1  0
 12 39  1  0
 14 40  1  0
 17 41  1  0
 19 42  1  0
 22 43  1  0
 23 44  1  0
 27 45  1  0
 27 46  1  0
 27 47  1  0
M  END
>  <SMILES>  (10) 
CN(C)CCOC1=C(C=C2C(=C1)N=CN=C2NC3=CC(=C(C=C3)Br)F)OC

>  <QED>  (10) 
0.600

>  <SA_Score>  (10) 
2.32

>  <CompositeScore>  (10) 
0.368

>  <MW>  (10) 
435.3

$$$$
